Version 4
SHEET 1 1924 1088
WIRE 384 -112 384 -176
WIRE -1136 -96 -1136 -112
WIRE 496 -96 432 -96
WIRE -336 48 -416 48
WIRE -160 48 -240 48
WIRE -80 48 -160 48
WIRE 112 48 -16 48
WIRE 160 48 112 48
WIRE 384 48 384 -16
WIRE 384 48 256 48
WIRE 496 80 496 -96
WIRE 496 80 304 80
WIRE 384 96 384 48
WIRE 240 112 240 96
WIRE 304 112 304 80
WIRE 304 112 240 112
WIRE 240 144 240 112
WIRE -256 160 -256 96
WIRE -160 240 -160 48
WIRE 64 240 -160 240
WIRE -416 272 -416 48
WIRE -416 272 -560 272
WIRE 112 288 112 48
WIRE 112 288 -112 288
WIRE 384 400 384 272
WIRE 688 400 384 400
WIRE 1072 400 752 400
WIRE 1184 400 1072 400
WIRE 1600 400 1248 400
WIRE 1072 496 1072 400
WIRE 1600 496 1072 496
WIRE -416 512 -416 272
WIRE -336 512 -416 512
WIRE -112 512 -112 288
WIRE -112 512 -240 512
WIRE -32 512 -112 512
WIRE 64 512 64 240
WIRE 64 512 32 512
WIRE 224 512 64 512
WIRE 384 512 384 400
WIRE 384 512 320 512
WIRE 464 512 384 512
WIRE 464 560 464 512
WIRE 1920 608 1616 608
WIRE -256 624 -256 560
WIRE 304 624 304 560
WIRE 1920 656 1632 656
FLAG 1600 400 Q
FLAG 1600 496 Q~
FLAG -256 624 R
FLAG -256 160 S
FLAG 240 144 CP
FLAG 304 624 CP
FLAG -560 272 Vdd
FLAG 384 -176 Vss
FLAG -1296 -112 0
FLAG -1136 -96 0
FLAG -1296 144 0
FLAG -1296 304 0
FLAG -1296 464 0
FLAG -1296 -192 Vss
FLAG -1136 -192 Vdd
FLAG -1296 64 CP
FLAG -1296 224 S
FLAG -1296 384 R
FLAG 464 640 0
FLAG 1520 656 R
FLAG 1520 608 S
SYMBOL memR_TH 384 192 R270
SYMATTR InstName U1
SYMBOL voltage -1296 -208 R0
WINDOW 123 0 0 Left 0
WINDOW 39 0 0 Left 0
SYMATTR InstName V1
SYMATTR Value 3
SYMBOL voltage -1136 -208 R0
WINDOW 123 0 0 Left 0
WINDOW 39 0 0 Left 0
SYMATTR InstName V2
SYMATTR Value 5
SYMBOL voltage -1296 48 R0
WINDOW 123 0 0 Left 0
WINDOW 39 0 0 Left 0
SYMATTR InstName V3
SYMATTR Value PULSE(0 5 0 1p 1p 100n 200n)
SYMBOL voltage -1296 208 R0
WINDOW 123 0 0 Left 0
WINDOW 39 0 0 Left 0
SYMATTR InstName V4
SYMATTR Value PULSE(0 5 100n 1p 1p 40n 250n)
SYMBOL voltage -1296 368 R0
WINDOW 123 0 0 Left 0
WINDOW 39 0 0 Left 0
SYMATTR InstName V5
SYMATTR Value PULSE(0 5 200n 1p 1p 100n 250n)
SYMBOL res 448 544 R0
SYMATTR InstName R1
SYMATTR Value 10k
SYMBOL pmos 432 -16 R180
SYMATTR InstName M4
SYMATTR Value Si4425BDY
SYMBOL Digital\\inv 688 336 R0
WINDOW 3 -5 114 Invisible 2
WINDOW 123 8 60 Left 2
WINDOW 39 8 88 Left 2
SYMATTR Value Vhigh=4V Vlow=0V
SYMATTR SpiceLine ref=2V
SYMATTR InstName A4
SYMBOL Digital\\inv 1184 336 R0
WINDOW 3 -5 114 Invisible 2
SYMATTR Value Vhigh=4V Vlow=0V
SYMATTR InstName A1
SYMBOL Digital\\inv -80 -16 R0
WINDOW 3 -5 114 Invisible 2
WINDOW 123 8 60 Left 2
SYMATTR Value Vhigh=4V Vlow=0V
SYMATTR InstName A2
SYMBOL Digital\\inv -32 448 R0
WINDOW 3 -5 114 Invisible 2
WINDOW 123 8 60 Left 2
SYMATTR Value Vhigh=4V Vlow=0V
SYMATTR InstName A3
SYMBOL nmos -336 96 R270
SYMATTR InstName M5
SYMATTR Value BSC019NE2LSI
SYMBOL nmos -336 560 R270
SYMATTR InstName M1
SYMATTR Value BSC019NE2LSI
SYMBOL nmos 224 560 R270
SYMATTR InstName M2
SYMATTR Value BSC019NE2LSI
SYMBOL nmos 160 96 R270
SYMATTR InstName M3
SYMATTR Value BSC019NE2LSI
SYMBOL Digital\\srflop 1568 560 R0
SYMATTR InstName A5
TEXT -1328 704 Left 2 !.tran 2us
