Version 4
SHEET 1 2756 856
WIRE 816 -160 16 -160
WIRE 1504 -160 880 -160
WIRE 688 -16 688 -48
WIRE 720 -16 688 -16
WIRE 2176 0 2176 -32
WIRE 2208 0 2176 0
WIRE 720 32 720 -16
WIRE 720 32 688 32
WIRE 2208 48 2208 0
WIRE 2208 48 2176 48
WIRE 16 64 16 -160
WIRE 16 64 -160 64
WIRE 480 64 16 64
WIRE 640 64 480 64
WIRE 1504 80 1504 -160
WIRE 1968 80 1504 80
WIRE 2128 80 1968 80
WIRE 2704 112 2448 112
WIRE 16 144 16 64
WIRE 480 144 480 64
WIRE 1504 160 1504 80
WIRE 1968 160 1968 80
WIRE 0 192 -160 192
WIRE 176 192 96 192
WIRE 240 192 176 192
WIRE 464 192 304 192
WIRE 688 192 688 80
WIRE 688 192 560 192
WIRE 1488 208 1056 208
WIRE 1664 208 1584 208
WIRE 1728 208 1664 208
WIRE 1952 208 1792 208
WIRE 2176 208 2176 96
WIRE 2176 208 2048 208
WIRE 2704 208 2544 208
WIRE 48 240 48 192
WIRE 96 240 96 192
WIRE 96 240 48 240
WIRE 512 240 512 192
WIRE 560 240 560 192
WIRE 560 240 512 240
WIRE 688 256 688 192
WIRE 1536 256 1536 208
WIRE 1584 256 1584 208
WIRE 1584 256 1536 256
WIRE 2000 256 2000 208
WIRE 2048 256 2048 208
WIRE 2048 256 2000 256
WIRE 2176 272 2176 208
WIRE 176 464 176 192
WIRE 688 464 688 368
WIRE 688 464 176 464
WIRE 880 464 688 464
WIRE 976 464 944 464
WIRE 1056 464 1056 208
WIRE 1056 464 1040 464
WIRE 1664 480 1664 208
WIRE 2176 480 2176 384
WIRE 2176 480 1664 480
WIRE 2368 480 2176 480
WIRE 2448 480 2448 112
WIRE 2448 480 2432 480
WIRE 2480 480 2448 480
WIRE 2544 480 2544 208
WIRE 688 560 688 464
WIRE 2176 576 2176 480
WIRE 688 736 688 640
WIRE 2176 752 2176 656
FLAG -160 64 cp
FLAG -160 192 D
FLAG 688 -48 Vss
FLAG -960 336 0
FLAG -960 144 0
FLAG -960 -32 0
FLAG -960 -112 cp
FLAG -960 64 D
FLAG -960 256 Vss
FLAG 688 736 0
FLAG 2176 -32 Vss
FLAG 2176 752 0
FLAG 2704 208 Q
FLAG 2704 112 Q~
SYMBOL Digital\\inv 240 128 R0
WINDOW 3 -43 152 Left 2
WINDOW 123 -43 180 Left 2
SYMATTR Value Vhigh=5V Vlow=0V
SYMATTR InstName A1
SYMBOL Digital\\inv 880 400 R0
WINDOW 3 8 60 Invisible 2
SYMATTR Value Vhigh=4V Vlow=0V
SYMATTR InstName A2
SYMBOL voltage -960 -128 R0
WINDOW 123 0 0 Left 0
WINDOW 39 0 0 Left 0
SYMATTR InstName V1
SYMATTR Value PULSE(0 5 100n 20p 20p 100n 200n)
SYMBOL voltage -960 48 R0
WINDOW 123 0 0 Left 0
WINDOW 39 0 0 Left 0
SYMATTR InstName V2
SYMATTR Value PULSE(0 4 100n 20p 20p 90n 150n)
SYMBOL voltage -960 240 R0
WINDOW 123 0 0 Left 0
WINDOW 39 0 0 Left 0
SYMATTR InstName V3
SYMATTR Value 3
SYMBOL res 672 544 R0
SYMATTR InstName R1
SYMATTR Value 10k
SYMBOL nmos4 96 144 R90
SYMATTR InstName M1
SYMATTR Value FASTEST_NMOS
SYMBOL nmos4 560 144 R90
SYMATTR InstName M2
SYMATTR Value FASTEST_NMOS
SYMBOL pmos4 640 -16 R0
SYMATTR InstName M3
SYMATTR Value FASTEST_PMOS
SYMATTR Value2 w=50u
SYMBOL MEM_KNOWM 688 320 R270
WINDOW 123 163 285 Top 2
SYMATTR Value2 Ron=1k Roff=100k Voff=-3 Von=3 TAU=0.0001 T=298.5
SYMATTR InstName U1
SYMBOL Digital\\inv 1728 144 R0
WINDOW 3 -43 152 Left 2
WINDOW 123 -43 180 Left 2
SYMATTR Value Vhigh=4V Vlow=0V
SYMATTR Value2 ref=2V
SYMATTR InstName A4
SYMBOL Digital\\inv 2368 416 R0
WINDOW 3 8 60 Invisible 2
WINDOW 123 -21 -23 Left 2
SYMATTR Value Vhigh=4V Vlow=0V
SYMATTR Value2 ref=2
SYMATTR InstName A5
SYMBOL Digital\\inv 2480 416 R0
WINDOW 3 8 104 Invisible 2
SYMATTR Value Vhigh=4V Vlow=0V
SYMATTR InstName A6
SYMBOL res 2160 560 R0
SYMATTR InstName R2
SYMATTR Value 10k
SYMBOL nmos4 1584 160 R90
SYMATTR InstName M4
SYMATTR Value FASTEST_NMOS
SYMBOL nmos4 2048 160 R90
SYMATTR InstName M5
SYMATTR Value FASTEST_NMOS
SYMBOL pmos4 2128 0 R0
SYMATTR InstName M6
SYMATTR Value FASTEST_PMOS
SYMATTR Value2 w=50u
SYMBOL MEM_KNOWM 2176 336 R270
SYMATTR InstName U2
SYMATTR Value2 Ron=1k Roff=100k Voff=-3 Von=3 TAU=0.0001 T=298.5
SYMBOL Digital\\inv 816 -224 R0
WINDOW 3 -21 5 Left 2
WINDOW 123 -21 -23 Left 2
SYMATTR Value Vhigh=5V Vlow=0V
SYMATTR Value2 ref=2
SYMATTR InstName A7
SYMBOL Digital\\inv 976 400 R0
WINDOW 3 8 60 Invisible 2
WINDOW 123 -21 -23 Left 2
SYMATTR Value Vhigh=4V Vlow=0V
SYMATTR Value2 ref=0.8
SYMATTR InstName A3
TEXT -448 496 Left 2 !.tran 1us
TEXT -1504 640 Left 2 !.model FASTEST_NMOS NMOS (LEVEL=1 VTO=1 KP=1e-5 L=0.5u W=50u LAMBDA=0 GAMMA=0 CGDO=1f CGSO=1f RS=0.01 RD=0.01)
TEXT -1608 840 Left 2 !.model FASTEST_PMOS PMOS (LEVEL=1 VTO=-1 KP=5e-6 L=0.5u W=50u LAMBDA=0 GAMMA=0 CGDO=1f CGSO=1f RS=0.01 RD=0.01)
